Measurement: Broad Scan, , unoriented, Raman Data RAW
Mineral: Anatase
Rruff sample: R060277
Ideal chemistry: Ti^4+^O_2_
Locality: Taftan, near Dalbandi, Baluchistan Province, Pakistan
Source: Herb Obodda
Description: Dark brown tetragonal tabular crystals
Measured chemistry: Ti_1.00_O_2_
Raman shift (cm-1)	intensity
79.8499	0
89.4922	33488.4
99.1345	64898.4
108.777	128319
118.419	171342
128.061	265373
137.704	605248
147.346	538486
156.988	115488
166.631	42210.5
176.273	25846.4
185.916	20791.8
195.558	22710.6
205.2	15788.3
214.843	13224.2
224.485	12803.4
234.127	12853
243.769	13252.7
253.412	14496.2
263.054	16599.5
272.697	19854.3
282.339	24686.5
291.981	31270.5
301.623	37355.9
311.266	41570.2
320.908	43636.6
330.55	45368.5
340.193	52478
349.835	70385.7
359.478	108468
369.12	172584
378.762	280794
388.404	470865
398.047	531879
407.689	278291
417.332	123559
426.974	74058.1
436.616	54743.3
446.259	48228.7
455.901	46883.5
465.543	52075.2
475.185	70641.1
484.828	109019
494.47	164320
504.113	280349
513.755	427505
523.397	327571
533.04	182090
542.682	109108
552.324	74690
561.967	58025.3
571.609	49494.4
581.251	44508.4
590.894	42113.3
600.536	44771.7
610.178	53120.5
619.821	65558.2
629.463	87924.3
639.105	99718.8
648.748	68958.1
658.39	43161.4
668.032	32091.5
677.675	26915.7
687.317	24354.3
696.959	22555.4
706.602	19622.9
716.244	16620
725.886	14552.1
735.529	13486.4
745.171	13336.2
754.813	14190
764.456	16089
774.098	18991.8
783.74	22427.9
793.383	23987.8
803.025	22723.3
812.667	19964.8
822.31	17364.4
831.952	15542.9
841.594	14239.4
851.237	12937.3
860.879	11873.8
870.521	10840.5
880.164	9564.47
889.806	8554.46
899.448	7792.84
909.091	7152.28
918.733	6577.55
928.375	6207.58
938.018	5733.46
947.66	5330.16
957.302	5029.53
966.945	4756.74
976.587	4441.56
986.229	4236.23
995.872	3979.29
1005.51	3712.56
1015.16	3570.24
1024.8	3480.34
1034.44	3368.47
1044.08	3170.12
1053.73	3070.98
1063.37	2834.18
1073.01	2736.66
1082.65	2557.68
1092.3	2469.44
1101.94	2320.81
1111.58	2232.97
1121.22	2107.31
1130.86	1980.77
1140.51	1878.01
1150.15	1815.96
1159.79	1731.9
1169.43	1649.5
1179.08	1591.16
1188.72	1646.97
1198.36	1582.27
1208	1627.94
1217.64	1640.94
1227.29	1640.46
1236.93	1722.84
1246.57	1771.99
1256.21	1838.14
1265.86	1886.38
1275.5	1762.4
1285.14	1709.86
1294.78	1585.71
1304.43	1473.94
1314.07	1350.77
1323.71	1234.01
1333.35	1191.65
1343	1189.12
1352.64	1143.96
1362.28	988.365
1371.92	929.726
1381.57	891.712
1391.21	916.68
1400.85	783.291
1410.49	796.579
1420.13	731.418
1429.78	705.252
1439.42	635.585
1449.06	695.849
1458.7	673.859
1468.35	612.45
1477.99	646.455
1487.63	609.424
1497.27	619.108
1506.91	608.388
1516.56	617.68
1526.2	627.111
1535.84	656.756
1545.48	639.654
1555.13	656.315
1564.77	672.299
1574.41	716.509
1584.05	779.239
1593.7	861.831
1603.34	934.308
1612.98	889.285
1622.62	1007.98
1632.27	1088.34
1641.91	1163.34
1651.55	1170.08
1661.19	1177.28
1670.84	1310.65
1680.48	1164.1
1690.12	1144.32
1699.76	1104.5
1709.4	1007.75
1719.05	932
1728.69	780.96
1738.33	658.088
1747.97	561.499
1757.62	525.134
1767.26	462.892
1776.9	391.283
1786.54	286.573
1796.18	389.91
1805.83	324.498
1815.47	236.513
1825.11	250.855
1834.76	303.721
1844.4	309.635
1854.04	292.053
1863.68	284.632
1873.32	163.237
1882.97	262.387
1892.61	214.836
1902.25	213.198
1911.89	236.389
1921.54	212.068
1931.18	155.886
1940.82	182.109
1950.46	179.113
1960.11	199.08
1969.75	158.245
1979.39	219.836
1989.03	203.601
1998.67	195.338
2008.32	173.094
2017.96	219.529
2027.6	252.743
2037.24	162.374
2046.89	152.668
2056.53	178.022
2066.17	154.801
2075.81	123.888
2085.45	176.692
2095.1	198.467
2104.74	125.044
2114.38	187.376
2124.03	150.289
2133.67	120.072
2143.31	123.607
2152.95	105.829
2162.59	167.936
2172.24	197.68
2181.88	84.2912
2191.52	123.871
2201.16	144.234
2210.81	142.84
2220.45	118.877
2230.09	92.655
2239.73	81.1805
2249.38	112.73
2259.02	72.1796
2268.66	153.756
2278.3	133.196
2287.94	158.334
2297.59	118.384
2307.23	73.468
2316.87	171.81
2326.51	88.5494
2336.16	138.173
2345.8	163.246
2355.44	85.9917
2365.08	134.203
2374.72	262.942
2384.37	125.51
2394.01	138.03
2403.65	162.591
2413.3	98.2333
2422.94	204.054
2432.58	100.104
2442.22	117.994
2451.86	113.246
2461.51	97.3197
2471.15	83.4092
2480.79	61.3157
2490.43	106.28
2500.08	109.957
2509.72	144.293
2519.36	101.254
2529	101.821
2538.64	101.648
2548.29	105.261
2557.93	40.5433
2567.57	181.97
2577.21	188.994
2586.86	115.921
2596.5	168.441
2606.14	106.348
2615.78	70.9921
2625.43	191.784
2635.07	86.3491
2644.71	134.382
2654.35	89.5017
2663.99	75.5628
2673.64	144.392
2683.28	83.9346
2692.92	122.766
2702.57	109.478
2712.21	79.5981
2721.85	47.5547
2731.49	138.349
2741.13	149.965
2750.78	101.084
2760.42	126.578
2770.06	92.9039
2779.7	81.3733
2789.35	132.764
2798.99	105.593
2808.63	44.9489
2818.27	58.3037
2827.91	107.695
2837.56	150.493
2847.2	81.7714
2856.84	118.383
2866.48	50.1235
2876.13	147.259
2885.77	71.3894
2895.41	84.5582
2905.05	67.1214
2914.7	158.449
2924.34	82.6038
2933.98	73.6482
2943.62	123.595
2953.26	70.0722
2962.91	190.345
2972.55	142.419
2982.19	36.4424
2991.84	117.628
3001.48	102.087
3011.12	24.4516
3020.76	73.2305
3030.4	181.845
3040.05	33.3828
3049.69	78.3619
3059.33	71.5305
3068.97	125.802
3078.62	125.632
3088.26	54.4482
3097.9	55.3939
3107.54	75.4702
3117.18	112.12
3126.83	123.651
3136.47	13.7546
3146.11	76.3015
3155.75	96.3624
3165.4	197.549
3175.04	86.0318
3184.68	17.5629
3194.32	144.574
3203.97	115.54
3213.61	126.037
3223.25	34.9048
3232.89	50.4815
3242.53	95.2368
3252.18	54.6434
3261.82	117.041
3271.46	41.374
3281.11	140.358
3290.75	103.113
3300.39	156.681
3310.03	116.526
3319.67	91.9911
3329.32	148.362
3338.96	151.238
3348.6	85.4039
3358.24	144.347
3367.89	130.199
3377.53	74.5289
3387.17	85.5197
3396.81	127.941
3406.45	151.063
3416.1	126.269
3425.74	47.1169
3435.38	32.9415
3445.02	145.817
3454.67	25.0441
